3hf7_ligand.pdb
     RDKit          3D

 36 38  0  0  1  0  0  0  0  0999 V2000
   34.4260   10.0380   15.8980 P   0  0  1  0  0  0  0  0  0  0  0  0
   34.9740   10.9810   14.8400 O   0  0  0  0  0  0  0  0  0  0  0  0
   34.1100   10.6680   17.2340 O   0  0  0  0  0  0  0  0  0  0  0  0
   33.3520    9.0890   15.4400 O   0  0  0  0  0  0  0  0  0  0  0  0
   36.5210    8.5270   15.1780 C   0  0  0  0  0  0  0  0  0  0  0  0
   35.6520    9.0230   16.2080 O   0  0  0  0  0  0  0  0  0  0  0  0
   37.9510    8.3630   15.6930 C   0  0  1  0  0  0  0  0  0  0  0  0
   38.6460    9.6100   15.6640 O   0  0  0  0  0  0  0  0  0  0  0  0
   38.0440    7.8540   17.1340 C   0  0  1  0  0  0  0  0  0  0  0  0
   38.1430    6.4190   17.2430 O   0  0  0  0  0  0  0  0  0  0  0  0
   39.2920    8.5220   17.6660 C   0  0  1  0  0  0  0  0  0  0  0  0
   40.4280    7.6920   17.4700 O   0  0  0  0  0  0  0  0  0  0  0  0
   39.4690    9.7710   16.8300 C   0  0  2  0  0  0  0  0  0  0  0  0
   40.4380   14.5380   18.9740 N   0  0  0  0  0  0  0  0  0  0  0  0
   41.2080   13.8300   18.1140 C   0  0  0  0  0  0  0  0  0  0  0  0
   40.8590   12.6160   17.6360 N   0  0  0  0  0  0  0  0  0  0  0  0
   39.6760   12.0340   17.9920 C   0  0  0  0  0  0  0  0  0  0  0  0
   38.8030   12.7650   18.9250 C   0  0  0  0  0  0  0  0  0  0  0  0
   39.2450   14.0790   19.4220 C   0  0  0  0  0  0  0  0  0  0  0  0
   38.4670   14.7850   20.2810 N   0  0  0  0  0  0  0  0  0  0  0  0
   37.7300   12.0010   19.1290 N   0  0  0  0  0  0  0  0  0  0  0  0
   37.8800   10.8750   18.3980 C   0  0  0  0  0  0  0  0  0  0  0  0
   39.0310   10.8890   17.7080 N   0  0  0  0  0  0  0  0  0  0  0  0
   32.5504    9.5893   15.2208 H   0  0  0  0  0  0  0  0  0  0  0  0
   36.1593    7.5771   14.8436 H   0  0  0  0  0  0  0  0  0  0  0  0
   36.5294    9.2320   14.3731 H   0  0  0  0  0  0  0  0  0  0  0  0
   38.3858    7.6366   15.0386 H   0  0  0  0  0  0  0  0  0  0  0  0
   37.1555    8.0892   17.6819 H   0  0  0  0  0  0  0  0  0  0  0  0
   38.9315    6.1123   16.7686 H   0  0  0  0  0  0  0  0  0  0  0  0
   39.2002    8.7236   18.7128 H   0  0  0  0  0  0  0  0  0  0  0  0
   40.5276    7.4981   16.5248 H   0  0  0  0  0  0  0  0  0  0  0  0
   40.4674    9.9595   16.4945 H   0  0  0  0  0  0  0  0  0  0  0  0
   42.1055   14.2381   17.8089 H   0  0  0  0  0  0  0  0  0  0  0  0
   38.7679   15.6628   20.6097 H   0  0  0  0  0  0  0  0  0  0  0  0
   37.6016   14.4193   20.5754 H   0  0  0  0  0  0  0  0  0  0  0  0
   37.1964   10.1023   18.3733 H   0  0  0  0  0  0  0  0  0  0  0  0
  1  2  2  0
  1  3  1  0
  1  4  1  0
  1  6  1  0
  4 24  1  0
  5  7  1  0
  5  6  1  0
  5 25  1  0
  5 26  1  0
  7  8  1  0
  7  9  1  0
  7 27  1  6
  8 13  1  0
  9 10  1  0
  9 11  1  0
  9 28  1  1
 10 29  1  0
 11 12  1  0
 11 13  1  0
 11 30  1  1
 12 31  1  0
 13 23  1  0
 13 32  1  6
 14 15  2  0
 14 19  1  0
 15 16  1  0
 15 33  1  0
 16 17  2  0
 17 18  1  0
 17 23  1  0
 18 19  2  0
 18 21  1  0
 19 20  1  0
 20 34  1  0
 20 35  1  0
 21 22  2  0
 22 23  1  0
 22 36  1  0
M  CHG  1   3  -1
V    1 1
V    2 1
V    3 1
V    4 1
V    5 2
V    6 1
V    7 3
V    8 3
V    9 3
V   10 3
V   11 3
V   12 3
V   13 3
V   14 4
V   15 4
V   16 4
V   17 4
V   18 4
V   19 4
V   20 4
V   21 4
V   22 4
V   23 4
V   24 1
V   25 2
V   26 2
V   27 3
V   28 3
V   29 3
V   30 3
V   31 3
V   32 3
V   33 4
V   34 4
V   35 4
V   36 4
M  END
