
     RDKit          3D

  5  4  0  0  0  0  0  0  0  0999 V2000
   12.5440    3.6970   -3.8270 C   0  0  2  0  0  0  0  0  0  0  0  0
   13.3200    2.8650   -3.0770 F   0  0  0  0  0  0  0  0  0  0  0  0
   12.8710    3.4420   -5.1240 F   0  0  0  0  0  0  0  0  0  0  0  0
   12.9910    4.9570   -3.5680 F   0  0  0  0  0  0  0  0  0  0  0  0
   11.4691    3.5766   -3.6268 H   0  0  0  0  0  0  0  0  0  0  0  0
  1  2  1  0
  1  3  1  0
  1  4  1  0
  1  5  1  1
M  END
