
     RDKit          3D

  6  5  0  0  0  0  0  0  0  0999 V2000
    2.7650   -2.9760   -2.1650 C   0  0  0  0  0  0  0  0  0  0  0  0
    3.6060   -2.0590   -1.4700 O   0  0  0  0  0  0  0  0  0  0  0  0
    2.2068   -3.5846   -1.4384 H   0  0  0  0  0  0  0  0  0  0  0  0
    2.0576   -2.4185   -2.7965 H   0  0  0  0  0  0  0  0  0  0  0  0
    3.3815   -3.6326   -2.7965 H   0  0  0  0  0  0  0  0  0  0  0  0
    3.4931   -2.1821   -0.4942 H   0  0  0  0  0  0  0  0  0  0  0  0
  1  2  1  0
  1  3  1  0
  1  4  1  0
  1  5  1  0
  2  6  1  0
M  END
