DBF_1_1
     RDKit          3D

  6  5  0  0  0  0  0  0  0  0999 V2000
    2.7650   -2.9760   -2.1650 C   0  0  0  0  0  0  0  0  0  0  0  0
    3.6060   -2.0590   -1.4700 O   0  0  0  0  0  0  0  0  0  0  0  0
    2.4300   -3.7450   -1.4640 H   0  0  0  0  0  0  0  0  0  0  0  0
    3.3170   -3.4590   -2.9780 H   0  0  0  0  0  0  0  0  0  0  0  0
    1.8860   -2.4610   -2.5660 H   0  0  0  0  0  0  0  0  0  0  0  0
    3.4931   -2.1821   -0.4942 H   0  0  0  0  0  0  0  0  0  0  0  0
  1  2  1  0
  1  3  1  0
  1  4  1  0
  1  5  1  0
  2  6  1  0
M  END
$$$$
DBF_1_2
     RDKit          3D

 14 13  0  0  0  0  0  0  0  0999 V2000
    4.0600   -1.0330   -2.3480 C   0  0  0  0  0  0  0  0  0  0  0  0
    4.9480   -0.0500   -1.5890 C   0  0  0  0  0  0  0  0  0  0  0  0
    5.4350    1.0410   -2.5410 C   0  0  0  0  0  0  0  0  0  0  0  0
    6.2290    2.1420   -1.8340 C   0  0  0  0  0  0  0  0  0  0  0  0
    3.1930   -0.5040   -2.7610 H   0  0  0  0  0  0  0  0  0  0  0  0
    4.6250   -1.4850   -3.1710 H   0  0  0  0  0  0  0  0  0  0  0  0
    5.7970   -0.5810   -1.1420 H   0  0  0  0  0  0  0  0  0  0  0  0
    4.3850    0.3840   -0.7530 H   0  0  0  0  0  0  0  0  0  0  0  0
    4.5600    1.4700   -3.0410 H   0  0  0  0  0  0  0  0  0  0  0  0
    6.0480    0.5930   -3.3320 H   0  0  0  0  0  0  0  0  0  0  0  0
    7.0110    1.6850   -1.2300 H   0  0  0  0  0  0  0  0  0  0  0  0
    5.5910    2.6790   -1.1230 H   0  0  0  0  0  0  0  0  0  0  0  0
    3.7231   -1.8178   -1.6548 H   0  0  0  0  0  0  0  0  0  0  0  0
    6.6271    2.8173   -2.6056 H   0  0  0  0  0  0  0  0  0  0  0  0
  1  2  1  0
  1  5  1  0
  1  6  1  0
  2  3  1  0
  2  7  1  0
  2  8  1  0
  3  4  1  0
  3  9  1  0
  3 10  1  0
  4 11  1  0
  4 12  1  0
  1 13  1  0
  4 14  1  0
M  END
$$$$
DBF_1_3
     RDKit          3D

 16 16  0  0  0  0  0  0  0  0999 V2000
    6.7920    3.1620   -2.8390 C   0  0  0  0  0  0  0  0  0  0  0  0
    6.0200    3.9830   -3.5000 N   0  0  0  0  0  0  0  0  0  0  0  0
    4.6760    3.8270   -3.1420 O   0  0  0  0  0  0  0  0  0  0  0  0
    8.2810    3.2480   -3.0810 C   0  0  0  0  0  0  0  0  0  0  0  0
    9.2160    2.4520   -2.4030 C   0  0  0  0  0  0  0  0  0  0  0  0
   10.5900    2.6010   -2.6400 C   0  0  0  0  0  0  0  0  0  0  0  0
   11.0640    3.5400   -3.5650 C   0  0  0  0  0  0  0  0  0  0  0  0
   10.1320    4.3340   -4.2470 C   0  0  0  0  0  0  0  0  0  0  0  0
    8.7620    4.1880   -4.0040 C   0  0  0  0  0  0  0  0  0  0  0  0
    8.9230    1.7020   -1.6770 H   0  0  0  0  0  0  0  0  0  0  0  0
   11.2900    1.9720   -2.0900 H   0  0  0  0  0  0  0  0  0  0  0  0
   10.4710    5.0750   -4.9700 H   0  0  0  0  0  0  0  0  0  0  0  0
    8.0740    4.8260   -4.5500 H   0  0  0  0  0  0  0  0  0  0  0  0
    6.3722    2.4329   -2.1303 H   0  0  0  0  0  0  0  0  0  0  0  0
    3.9816    4.3891   -3.5687 H   0  0  0  0  0  0  0  0  0  0  0  0
   12.1423    3.6516   -3.7517 H   0  0  0  0  0  0  0  0  0  0  0  0
  1  2  2  0
  1  4  1  0
  2  3  1  0
  4  5  2  0
  4  9  1  0
  5  6  1  0
  5 10  1  0
  6  7  2  0
  6 11  1  0
  7  8  1  0
  8  9  2  0
  8 12  1  0
  9 13  1  0
  1 14  1  0
  3 15  1  0
  7 16  1  0
M  END
$$$$
DBF_1_4
     RDKit          3D

 10  9  0  0  0  0  0  0  0  0999 V2000
    3.8520    4.6400   -3.9790 C   0  0  0  0  0  0  0  0  0  0  0  0
    2.3990    4.3020   -3.6350 C   0  0  0  0  0  0  0  0  0  0  0  0
    1.4190    5.1290   -4.3390 N   0  0  0  0  0  0  0  0  0  0  0  0
    4.0580    4.4270   -5.0340 H   0  0  0  0  0  0  0  0  0  0  0  0
    4.0670    5.6940   -3.7730 H   0  0  0  0  0  0  0  0  0  0  0  0
    2.2470    4.4010   -2.5540 H   0  0  0  0  0  0  0  0  0  0  0  0
    2.2120    3.2470   -3.8690 H   0  0  0  0  0  0  0  0  0  0  0  0
    1.5320    6.1020   -4.0550 H   0  0  0  0  0  0  0  0  0  0  0  0
    0.4830    4.8570   -4.0370 H   0  0  0  0  0  0  0  0  0  0  0  0
    4.4994    4.0128   -3.3486 H   0  0  0  0  0  0  0  0  0  0  0  0
  1  2  1  0
  1  4  1  0
  1  5  1  0
  2  3  1  0
  2  6  1  0
  2  7  1  0
  3  8  1  0
  3  9  1  0
  1 10  1  0
M  END
$$$$
DBF_1_5
     RDKit          3D

  5  4  0  0  0  0  0  0  0  0999 V2000
   12.5440    3.6970   -3.8270 C   0  0  0  0  0  0  0  0  0  0  0  0
   13.3200    2.8650   -3.0770 F   0  0  0  0  0  0  0  0  0  0  0  0
   12.8710    3.4420   -5.1240 F   0  0  0  0  0  0  0  0  0  0  0  0
   12.9910    4.9570   -3.5680 F   0  0  0  0  0  0  0  0  0  0  0  0
   11.4691    3.5766   -3.6268 H   0  0  0  0  0  0  0  0  0  0  0  0
  1  2  1  0
  1  3  1  0
  1  4  1  0
  1  5  1  0
M  END
$$$$
DBF_2_1
     RDKit          3D

  8  7  0  0  0  0  0  0  0  0999 V2000
    0.6630   -0.1690    0.5560 H   0  0  0  0  0  0  0  0  0  0  0  0
    1.3990   -0.1690   -0.2450 C   0  0  2  0  0  0  0  0  0  0  0  0
    0.6910   -0.1510   -1.6120 C   0  0  0  0  0  0  0  0  0  0  0  0
    1.4010   -0.3150   -2.4310 H   0  0  0  0  0  0  0  0  0  0  0  0
    0.1770    0.8010   -1.7930 H   0  0  0  0  0  0  0  0  0  0  0  0
   -0.0570   -0.9400   -1.7000 H   0  0  0  0  0  0  0  0  0  0  0  0
    2.0367    0.7226   -0.1535 H   0  0  0  0  0  0  0  0  0  0  0  0
    2.0143   -1.0777   -0.1694 H   0  0  0  0  0  0  0  0  0  0  0  0
  2  1  1  6
  2  3  1  0
  3  4  1  0
  3  5  1  0
  3  6  1  0
  2  7  1  0
  2  8  1  0
M  END
$$$$
DBF_2_2
     RDKit          3D

 21 22  0  0  0  0  0  0  0  0999 V2000
    2.2210   -1.3480   -0.1430 O   0  0  0  0  0  0  0  0  0  0  0  0
    1.8980   -2.2850    0.8080 C   0  0  0  0  0  0  0  0  0  0  0  0
    2.9750   -3.0130    1.3370 C   0  0  0  0  0  0  0  0  0  0  0  0
    2.7480   -3.9790    2.3270 C   0  0  0  0  0  0  0  0  0  0  0  0
    1.4330   -4.1450    2.7550 C   0  0  0  0  0  0  0  0  0  0  0  0
    0.3680   -3.5110    2.2220 N   0  0  0  0  0  0  0  0  0  0  0  0
    0.6080   -2.6360    1.2290 C   0  0  0  0  0  0  0  0  0  0  0  0
   -0.5500   -2.1660    0.6160 N   0  0  0  0  0  0  0  0  0  0  0  0
    3.7880   -4.8430    2.8430 C   0  0  0  0  0  0  0  0  0  0  0  0
    3.7970   -5.4010    4.1150 C   0  0  0  0  0  0  0  0  0  0  0  0
    4.8630   -6.2560    4.1610 N   0  0  0  0  0  0  0  0  0  0  0  0
    5.5580   -6.2740    3.0100 N   0  0  0  0  0  0  0  0  0  0  0  0
    4.9020   -5.4300    2.2160 C   0  0  0  0  0  0  0  0  0  0  0  0
    3.9790   -2.8200    0.9700 H   0  0  0  0  0  0  0  0  0  0  0  0
    1.1780   -4.8530    3.5380 H   0  0  0  0  0  0  0  0  0  0  0  0
   -1.3210   -2.6500    1.0670 H   0  0  0  0  0  0  0  0  0  0  0  0
   -0.5150   -2.3850   -0.3710 H   0  0  0  0  0  0  0  0  0  0  0  0
    3.1380   -5.2790    4.9620 H   0  0  0  0  0  0  0  0  0  0  0  0
    5.2540   -5.3090    1.1950 H   0  0  0  0  0  0  0  0  0  0  0  0
    1.5098   -0.7986   -0.5582 H   0  0  0  0  0  0  0  0  0  0  0  0
    5.1066   -6.8232    4.9855 H   0  0  0  0  0  0  0  0  0  0  0  0
  1  2  1  0
  2  3  2  0
  2  7  1  0
  3  4  1  0
  3 14  1  0
  4  5  2  0
  4  9  1  0
  5  6  1  0
  5 15  1  0
  6  7  2  0
  7  8  1  0
  8 16  1  0
  8 17  1  0
  9 10  2  0
  9 13  1  0
 10 11  1  0
 10 18  1  0
 11 12  1  0
 12 13  2  0
 13 19  1  0
  1 20  1  0
 11 21  1  0
M  END
$$$$
DBF_2_3
     RDKit          3D

 17 17  0  0  0  0  0  0  0  0999 V2000
    5.2340   -7.1180    5.2860 C   0  0  0  0  0  0  0  0  0  0  0  0
    6.6420   -6.8270    5.8080 C   0  0  0  0  0  0  0  0  0  0  0  0
    7.7250   -7.4240    4.9100 C   0  0  0  0  0  0  0  0  0  0  0  0
    7.5270   -8.8540    4.6690 N   0  0  0  0  0  0  0  0  0  0  0  0
    6.2070   -9.1500    4.1110 C   0  0  0  0  0  0  0  0  0  0  0  0
    5.0720   -8.6110    4.9830 C   0  0  0  0  0  0  0  0  0  0  0  0
    4.5210   -6.8630    6.0850 H   0  0  0  0  0  0  0  0  0  0  0  0
    6.7420   -7.2610    6.8110 H   0  0  0  0  0  0  0  0  0  0  0  0
    6.7990   -5.7470    5.9160 H   0  0  0  0  0  0  0  0  0  0  0  0
    8.6980   -7.2890    5.3970 H   0  0  0  0  0  0  0  0  0  0  0  0
    7.8000   -6.8830    3.9610 H   0  0  0  0  0  0  0  0  0  0  0  0
    7.6570   -9.3690    5.5370 H   0  0  0  0  0  0  0  0  0  0  0  0
    6.1050  -10.2390    4.0330 H   0  0  0  0  0  0  0  0  0  0  0  0
    6.1280   -8.7750    3.0850 H   0  0  0  0  0  0  0  0  0  0  0  0
    5.0760   -9.1640    5.9340 H   0  0  0  0  0  0  0  0  0  0  0  0
    4.1060   -8.8160    4.5090 H   0  0  0  0  0  0  0  0  0  0  0  0
    5.0579   -6.5355    4.3697 H   0  0  0  0  0  0  0  0  0  0  0  0
  1  2  1  0
  1  6  1  0
  1  7  1  0
  2  3  1  0
  2  8  1  0
  2  9  1  0
  3  4  1  0
  3 10  1  0
  3 11  1  0
  4  5  1  0
  4 12  1  0
  5  6  1  0
  5 13  1  0
  5 14  1  0
  6 15  1  0
  6 16  1  0
  1 17  1  0
M  END
$$$$
DBF_2_4
     RDKit          3D

 12 12  0  0  0  0  0  0  0  0999 V2000
    2.1750    1.1490   -0.1290 C   0  0  0  0  0  0  0  0  0  0  0  0
    1.5160    2.2840    0.4140 C   0  0  0  0  0  0  0  0  0  0  0  0
   -0.0150    2.1880    1.2250 Cl  0  0  0  0  0  0  0  0  0  0  0  0
    2.0560    3.5710    0.3070 C   0  0  0  0  0  0  0  0  0  0  0  0
    3.2890    3.7590   -0.3010 C   0  0  0  0  0  0  0  0  0  0  0  0
    3.9860    2.6520   -0.7720 C   0  0  0  0  0  0  0  0  0  0  0  0
    5.1890    2.8610   -1.3310 F   0  0  0  0  0  0  0  0  0  0  0  0
    3.4490    1.3590   -0.6990 C   0  0  0  0  0  0  0  0  0  0  0  0
    4.4090    0.0830   -1.3670 Cl  0  0  0  0  0  0  0  0  0  0  0  0
    1.5090    4.4310    0.6840 H   0  0  0  0  0  0  0  0  0  0  0  0
    3.7100    4.7510   -0.4130 H   0  0  0  0  0  0  0  0  0  0  0  0
    1.7131    0.1509   -0.1063 H   0  0  0  0  0  0  0  0  0  0  0  0
  1  2  2  0
  1  8  1  0
  2  3  1  0
  2  4  1  0
  4  5  2  0
  4 10  1  0
  5  6  1  0
  5 11  1  0
  6  7  1  0
  6  8  2  0
  8  9  1  0
  1 12  1  0
M  END
$$$$
