DB00176.pdb
     RDKit          3D

 43 43  0  0  0  0  0  0  0  0999 V2000
    2.7650   -2.9760   -2.1650 C   0  0  0  0  0  0  0  0  0  0  0  0
    3.6060   -2.0590   -1.4700 O   0  0  0  0  0  0  0  0  0  0  0  0
    4.0600   -1.0330   -2.3480 C   0  0  0  0  0  0  0  0  0  0  0  0
    4.9480   -0.0500   -1.5890 C   0  0  0  0  0  0  0  0  0  0  0  0
    5.4350    1.0410   -2.5410 C   0  0  0  0  0  0  0  0  0  0  0  0
    6.2290    2.1420   -1.8340 C   0  0  0  0  0  0  0  0  0  0  0  0
    6.7920    3.1620   -2.8390 C   0  0  0  0  0  0  0  0  0  0  0  0
    6.0200    3.9830   -3.5000 N   0  0  0  0  0  0  0  0  0  0  0  0
    4.6760    3.8270   -3.1420 O   0  0  0  0  0  0  0  0  0  0  0  0
    3.8520    4.6400   -3.9790 C   0  0  0  0  0  0  0  0  0  0  0  0
    2.3990    4.3020   -3.6350 C   0  0  0  0  0  0  0  0  0  0  0  0
    1.4190    5.1290   -4.3390 N   0  0  0  0  0  0  0  0  0  0  0  0
    8.2810    3.2480   -3.0810 C   0  0  0  0  0  0  0  0  0  0  0  0
    9.2160    2.4520   -2.4030 C   0  0  0  0  0  0  0  0  0  0  0  0
   10.5900    2.6010   -2.6400 C   0  0  0  0  0  0  0  0  0  0  0  0
   11.0640    3.5400   -3.5650 C   0  0  0  0  0  0  0  0  0  0  0  0
   10.1320    4.3340   -4.2470 C   0  0  0  0  0  0  0  0  0  0  0  0
    8.7620    4.1880   -4.0040 C   0  0  0  0  0  0  0  0  0  0  0  0
   12.5440    3.6970   -3.8270 C   0  0  0  0  0  0  0  0  0  0  0  0
   13.3200    2.8650   -3.0770 F   0  0  0  0  0  0  0  0  0  0  0  0
   12.8710    3.4420   -5.1240 F   0  0  0  0  0  0  0  0  0  0  0  0
   12.9910    4.9570   -3.5680 F   0  0  0  0  0  0  0  0  0  0  0  0
    2.4300   -3.7450   -1.4640 H   0  0  0  0  0  0  0  0  0  0  0  0
    3.3170   -3.4590   -2.9780 H   0  0  0  0  0  0  0  0  0  0  0  0
    1.8860   -2.4610   -2.5660 H   0  0  0  0  0  0  0  0  0  0  0  0
    3.1930   -0.5040   -2.7610 H   0  0  0  0  0  0  0  0  0  0  0  0
    4.6250   -1.4850   -3.1710 H   0  0  0  0  0  0  0  0  0  0  0  0
    5.7970   -0.5810   -1.1420 H   0  0  0  0  0  0  0  0  0  0  0  0
    4.3850    0.3840   -0.7530 H   0  0  0  0  0  0  0  0  0  0  0  0
    4.5600    1.4700   -3.0410 H   0  0  0  0  0  0  0  0  0  0  0  0
    6.0480    0.5930   -3.3320 H   0  0  0  0  0  0  0  0  0  0  0  0
    7.0110    1.6850   -1.2300 H   0  0  0  0  0  0  0  0  0  0  0  0
    5.5910    2.6790   -1.1230 H   0  0  0  0  0  0  0  0  0  0  0  0
    4.0580    4.4270   -5.0340 H   0  0  0  0  0  0  0  0  0  0  0  0
    4.0670    5.6940   -3.7730 H   0  0  0  0  0  0  0  0  0  0  0  0
    2.2470    4.4010   -2.5540 H   0  0  0  0  0  0  0  0  0  0  0  0
    2.2120    3.2470   -3.8690 H   0  0  0  0  0  0  0  0  0  0  0  0
    1.5320    6.1020   -4.0550 H   0  0  0  0  0  0  0  0  0  0  0  0
    0.4830    4.8570   -4.0370 H   0  0  0  0  0  0  0  0  0  0  0  0
    8.9230    1.7020   -1.6770 H   0  0  0  0  0  0  0  0  0  0  0  0
   11.2900    1.9720   -2.0900 H   0  0  0  0  0  0  0  0  0  0  0  0
   10.4710    5.0750   -4.9700 H   0  0  0  0  0  0  0  0  0  0  0  0
    8.0740    4.8260   -4.5500 H   0  0  0  0  0  0  0  0  0  0  0  0
  1  2  1  0
  1 23  1  0
  1 24  1  0
  1 25  1  0
  2  3  1  0
  3  4  1  0
  3 26  1  0
  3 27  1  0
  4  5  1  0
  4 28  1  0
  4 29  1  0
  5  6  1  0
  5 30  1  0
  5 31  1  0
  6  7  1  0
  6 32  1  0
  6 33  1  0
  7  8  2  0
  7 13  1  0
  8  9  1  0
  9 10  1  0
 10 11  1  0
 10 34  1  0
 10 35  1  0
 11 12  1  0
 11 36  1  0
 11 37  1  0
 12 38  1  0
 12 39  1  0
 13 14  2  0
 13 18  1  0
 14 15  1  0
 14 40  1  0
 15 16  2  0
 15 41  1  0
 16 17  1  0
 16 19  1  0
 17 18  2  0
 17 42  1  0
 18 43  1  0
 19 20  1  0
 19 21  1  0
 19 22  1  0
V    1 1
V    2 1
V    3 2
V    4 2
V    5 2
V    6 2
V    7 3
V    8 3
V    9 3
V   10 4
V   11 4
V   12 4
V   13 3
V   14 3
V   15 3
V   16 3
V   17 3
V   18 3
V   19 5
V   20 5
V   21 5
V   22 5
V   23 1
V   24 1
V   25 1
V   26 2
V   27 2
V   28 2
V   29 2
V   30 2
V   31 2
V   32 2
V   33 2
V   34 4
V   35 4
V   36 4
V   37 4
V   38 4
V   39 4
V   40 3
V   41 3
V   42 3
V   43 3
M  END
